
  -MolV3000Writer

  0  0  0  0  0  0  0  0  0  0  0 V3000
M  V30 BEGIN CTAB
M  V30 COUNTS 6 5 0 0 0
M  V30 BEGIN ATOM
M  V30 1 S 0.0 0.0 0.0 0
M  V30 2 O 0.0 0.0 0.0 0
M  V30 3 O 0.0 0.0 0.0 0
M  V30 4 O 0.0 0.0 0.0 0
M  V30 5 H 0.0 0.0 0.0 0
M  V30 6 H 0.0 0.0 0.0 0
M  V30 END ATOM
M  V30 BEGIN BOND
M  V30 1 2 1 2
M  V30 2 1 1 3
M  V30 3 1 1 4
M  V30 4 1 3 5
M  V30 5 1 4 6
M  V30 END BOND
M  V30 END CTAB
M  END