
  -MolV3000Writer

  0  0  0  0  0  0  0  0  0  0  0 V3000
M  V30 BEGIN CTAB
M  V30 COUNTS 13 12 0 0 0
M  V30 BEGIN ATOM
M  V30 1 C 0.0 0.0 0.0 0
M  V30 2 C 0.0 0.0 0.0 0
M  V30 3 C 0.0 0.0 0.0 0
M  V30 4 N 0.0 0.0 0.0 0
M  V30 5 H 0.0 0.0 0.0 0
M  V30 6 H 0.0 0.0 0.0 0
M  V30 7 H 0.0 0.0 0.0 0
M  V30 8 H 0.0 0.0 0.0 0
M  V30 9 O 0.0 0.0 0.0 0
M  V30 10 H 0.0 0.0 0.0 0
M  V30 11 H 0.0 0.0 0.0 0
M  V30 12 O 0.0 0.0 0.0 0
M  V30 13 H 0.0 0.0 0.0 0
M  V30 END ATOM
M  V30 BEGIN BOND
M  V30 1 1 1 2
M  V30 2 1 1 3
M  V30 3 1 1 4
M  V30 4 1 1 5
M  V30 5 1 2 6
M  V30 6 1 2 7
M  V30 7 1 2 8
M  V30 8 1 3 9
M  V30 9 2 3 12
M  V30 10 1 4 10
M  V30 11 1 4 11
M  V30 12 1 9 13
M  V30 END BOND
M  V30 END CTAB
M  END