
  -INDIGO-06052614412D

  0  0  0  0  0  0  0  0  0  0  0 V3000
M  V30 BEGIN CTAB
M  V30 COUNTS 4 3 0 0 0
M  V30 BEGIN ATOM
M  V30 1 A 17.5045 -8.3375 0.0 0
M  V30 2 C 17.5045 -7.3375 0.0 0
M  V30 3 O 16.6384 -6.8375 0.0 0
M  V30 4 H 18.3705 -6.8375 0.0 0
M  V30 END ATOM
M  V30 BEGIN BOND
M  V30 1 1 1 2
M  V30 2 2 2 3
M  V30 3 1 2 4
M  V30 END BOND
M  V30 END CTAB
M  END
