
  -INDIGO-06052614422D

  0  0  0  0  0  0  0  0  0  0  0 V3000
M  V30 BEGIN CTAB
M  V30 COUNTS 6 6 0 0 0
M  V30 BEGIN ATOM
M  V30 1 C 17.0349 -4.67508 0.0 0
M  V30 2 C 18.7652 -4.67459 0.0 0
M  V30 3 C 17.9016 -4.17497 0.0 0
M  V30 4 C 18.7652 -5.67553 0.0 0
M  V30 5 C 17.0349 -5.68002 0.0 0
M  V30 6 C 17.9038 -6.17503 0.0 0
M  V30 END ATOM
M  V30 BEGIN BOND
M  V30 1 4 3 1
M  V30 2 4 1 5
M  V30 3 4 5 6
M  V30 4 4 6 4
M  V30 5 4 4 2
M  V30 6 4 2 3
M  V30 END BOND
M  V30 END CTAB
M  END
