
  -INDIGO-06052614442D

  0  0  0  0  0  0  0  0  0  0  0 V3000
M  V30 BEGIN CTAB
M  V30 COUNTS 4 3 0 0 0
M  V30 BEGIN ATOM
M  V30 1 C 17.6257 -7.3375 0.0 0
M  V30 2 O 17.6257 -8.3375 0.0 0
M  V30 3 O 16.7596 -6.8375 0.0 0
M  V30 4 A 18.4917 -6.8375 0.0 0
M  V30 END ATOM
M  V30 BEGIN BOND
M  V30 1 2 1 2
M  V30 2 1 1 4
M  V30 3 1 1 3
M  V30 END BOND
M  V30 END CTAB
M  END
