
  -INDIGO-06052614462D

  0  0  0  0  0  0  0  0  0  0  0 V3000
M  V30 BEGIN CTAB
M  V30 COUNTS 7 6 0 0 0
M  V30 BEGIN ATOM
M  V30 1 A 16.2555 -8.45353 0.0 0
M  V30 2 A 18.2555 -8.45353 0.0 0
M  V30 3 A 18.2555 -6.72147 0.0 0
M  V30 4 C 16.7555 -7.5875 0.0 0
M  V30 5 C 17.7555 -7.5875 0.0 0
M  V30 6 O 16.2555 -6.72147 0.0 0
M  V30 7 H 18.7555 -7.5875 0.0 0
M  V30 END ATOM
M  V30 BEGIN BOND
M  V30 1 1 1 4
M  V30 2 2 4 6
M  V30 3 1 4 5
M  V30 4 1 5 2
M  V30 5 1 5 3
M  V30 6 1 5 7
M  V30 END BOND
M  V30 END CTAB
M  END
