
  -INDIGO-06192618022D

  0  0  0  0  0  0  0  0  0  0  0 V3000
M  V30 BEGIN CTAB
M  V30 COUNTS 4 3 0 0 0
M  V30 BEGIN ATOM
M  V30 1 C 17.7832 -7.9375 0.0 0
M  V30 2 O 17.7832 -8.9375 0.0 0
M  V30 3 H 16.9171 -7.4375 0.0 0
M  V30 4 O 18.6492 -7.4375 0.0 0
M  V30 END ATOM
M  V30 BEGIN BOND
M  V30 1 2 1 2
M  V30 2 1 1 3
M  V30 3 1 1 4
M  V30 END BOND
M  V30 END CTAB
M  END
