
  -INDIGO-06052614472D

  0  0  0  0  0  0  0  0  0  0  0 V3000
M  V30 BEGIN CTAB
M  V30 COUNTS 6 5 0 0 0
M  V30 BEGIN ATOM
M  V30 1 A 16.6256 -8.45356 0.0 0
M  V30 2 A 18.6256 -8.45356 0.0 0
M  V30 3 A 18.6256 -6.7215 0.0 0
M  V30 4 C 17.1255 -7.58771 0.0 0
M  V30 5 C 18.1255 -7.5877 0.0 0
M  V30 6 O 16.6256 -6.72151 0.0 0
M  V30 END ATOM
M  V30 BEGIN BOND
M  V30 1 1 1 4
M  V30 2 1 4 6
M  V30 3 2 4 5
M  V30 4 1 5 2
M  V30 5 1 5 3
M  V30 END BOND
M  V30 END CTAB
M  END
