
  -INDIGO-06052614482D

  0  0  0  0  0  0  0  0  0  0  0 V3000
M  V30 BEGIN CTAB
M  V30 COUNTS 3 2 0 0 0
M  V30 BEGIN ATOM
M  V30 1 A 16.475 -6.9 0.0 0
M  V30 2 C 17.5 -6.925 0.0 0
M  V30 3 N 19.025 -6.95 0.0 0
M  V30 END ATOM
M  V30 BEGIN BOND
M  V30 1 1 1 2
M  V30 2 3 2 3
M  V30 END BOND
M  V30 END CTAB
M  END
