
  -INDIGO-06052613212D

  0  0  0  0  0  0  0  0  0  0  0 V3000
M  V30 BEGIN CTAB
M  V30 COUNTS 3 2 0 0 0
M  V30 BEGIN ATOM
M  V30 1 O 17.503 -7.8375 0.0 0
M  V30 2 H 16.6369 -7.3375 0.0 0
M  V30 3 A 18.369 -7.3375 0.0 0
M  V30 END ATOM
M  V30 BEGIN BOND
M  V30 1 1 1 2
M  V30 2 1 1 3
M  V30 END BOND
M  V30 END CTAB
M  END
