
  -INDIGO-06262603132D

  0  0  0  0  0  0  0  0  0  0  0 V3000
M  V30 BEGIN CTAB
M  V30 COUNTS 6 5 0 0 0
M  V30 BEGIN ATOM
M  V30 1 O 16.9059 -9.05353 0.0 0
M  V30 2 C 17.4059 -8.1875 0.0 0
M  V30 3 C 18.4059 -8.1875 0.0 0
M  V30 4 O 18.9059 -9.05353 0.0 0
M  V30 5 O 16.9059 -7.32147 0.0 0
M  V30 6 O 18.9059 -7.32147 0.0 0
M  V30 END ATOM
M  V30 BEGIN BOND
M  V30 1 1 1 2
M  V30 2 1 2 3
M  V30 3 1 3 4
M  V30 4 2 2 5
M  V30 5 2 3 6
M  V30 END BOND
M  V30 END CTAB
M  END
