
  -INDIGO-06052614502D

  0  0  0  0  0  0  0  0  0  0  0 V3000
M  V30 BEGIN CTAB
M  V30 COUNTS 12 12 0 0 0
M  V30 BEGIN ATOM
M  V30 1 C 16.0348 -7.42507 0.0 0
M  V30 2 C 17.7652 -7.42459 0.0 0
M  V30 3 C 16.9016 -6.92497 0.0 0
M  V30 4 C 17.7652 -8.42553 0.0 0
M  V30 5 C 16.0348 -8.43002 0.0 0
M  V30 6 C 16.9038 -8.92503 0.0 0
M  V30 7 A 18.6312 -6.92459 0.0 0
M  V30 8 H 15.1689 -6.92495 0.0 0
M  V30 9 H 16.9022 -5.92497 0.0 0
M  V30 10 H 18.6317 -8.9247 0.0 0
M  V30 11 H 15.1703 -8.93253 0.0 0
M  V30 12 H 16.9077 -9.92503 0.0 0
M  V30 END ATOM
M  V30 BEGIN BOND
M  V30 1 2 3 1
M  V30 2 1 1 5
M  V30 3 2 5 6
M  V30 4 1 6 4
M  V30 5 2 4 2
M  V30 6 1 2 3
M  V30 7 1 2 7
M  V30 8 1 1 8
M  V30 9 1 3 9
M  V30 10 1 4 10
M  V30 11 1 5 11
M  V30 12 1 6 12
M  V30 END BOND
M  V30 END CTAB
M  END
