
  -INDIGO-08042614392D

  0  0  0  0  0  0  0  0  0  0  0 V3000
M  V30 BEGIN CTAB
M  V30 COUNTS 7 7 0 0 0
M  V30 BEGIN ATOM
M  V30 1 C 21.5973 -4.10257 0.0 0
M  V30 2 C 23.3277 -4.10209 0.0 0
M  V30 3 C 22.4641 -3.60247 0.0 0
M  V30 4 C 23.3277 -5.10303 0.0 0
M  V30 5 C 21.5973 -5.10752 0.0 0
M  V30 6 C 22.4663 -5.60253 0.0 0
M  V30 7 N 22.4641 -2.60247 0.0 0
M  V30 END ATOM
M  V30 BEGIN BOND
M  V30 1 2 3 1
M  V30 2 1 1 5
M  V30 3 2 5 6
M  V30 4 1 6 4
M  V30 5 2 4 2
M  V30 6 1 2 3
M  V30 7 1 3 7
M  V30 END BOND
M  V30 END CTAB
M  END
