
  -INDIGO-06052614532D

  0  0  0  0  0  0  0  0  0  0  0 V3000
M  V30 BEGIN CTAB
M  V30 COUNTS 12 12 0 0 0
M  V30 BEGIN ATOM
M  V30 1 C 13.7348 -8.25007 0.0 0
M  V30 2 C 15.4651 -8.24959 0.0 0
M  V30 3 C 14.6016 -7.74997 0.0 0
M  V30 4 C 15.4651 -9.25053 0.0 0
M  V30 5 C 13.7348 -9.25502 0.0 0
M  V30 6 C 14.6038 -9.75003 0.0 0
M  V30 7 H 12.8689 -7.74995 0.0 0
M  V30 8 H 16.3314 -7.74999 0.0 0
M  V30 9 H 14.6022 -6.74997 0.0 0
M  V30 10 H 16.3317 -9.7497 0.0 0
M  V30 11 H 12.8703 -9.75752 0.0 0
M  V30 12 H 14.6077 -10.75 0.0 0
M  V30 END ATOM
M  V30 BEGIN BOND
M  V30 1 2 3 1
M  V30 2 1 1 5
M  V30 3 2 5 6
M  V30 4 1 6 4
M  V30 5 2 4 2
M  V30 6 1 2 3
M  V30 7 1 1 7
M  V30 8 1 2 8
M  V30 9 1 3 9
M  V30 10 1 4 10
M  V30 11 1 5 11
M  V30 12 1 6 12
M  V30 END BOND
M  V30 END CTAB
M  END
